$$$$ GENERATED TITAN NETLIST using revision 81e4570437

* ==== HEADER WITH GENERAL OPTIONS =======
* Change syntax properties and semantics of some functions/operators
.COMOPT COMPAT=PSPICE
.COMOPT NAMES=RELAXED
.COMOPT LEVEL=0
.COMOPT MESSAGE SUPPRESS = E-027, E-091, E-238, E-458, E-636
.OPTION DEFL=100u
.OPTION DEFW=100u
* Define some functions aliases which are typically used
.FUNC iff(cond,then,else) = '(cond != 0)? then : else'
.FUNC ln(x) = 'log(x)'
* Define an alias for temperature evaluation
.PARAM TEMP = 'TEMPER'

* ======= SPECIAL TITAN SETTINGS ======== 
* Possible errors which will be suppressed
.OPTION MESSAGE WARNING=707,708,700,596,593
.OPTION MESSAGE WARNING=DP-0493
* Show progress during simulation
.OPTION PROGRESS=0.5 VERBOSE 
* ---- Settings for robustness ---- 
.TEST 737 
.TEST 254 * TOL_LIMIT=200
.TEST 253 
.OPTION ITL4=80
.COMOPT COMPAT=TITAN
.NLSOL
   OP, DC FIRST, DC SWEEP:
     NEWTON;
     PSEUDO(PSALPHA=1e-5);
     RAMP;
   TRAN DC:
     NEWTON;
     PSEUDO;
     RAMP(ACCEPT_QUIET_TRAN=1, MIN_SPREAD=10);
     RAMP(RAMP_TIME=1E-6, ACCEPT_QUIET_TRAN=0, MIN_SPREAD=10, WAVEFORMS=1, SETTLE_TIME=100, DELMAX=100);
.ENDNLSOL
.COMOPT COMPAT=RESTORE

* ======= SCHEMATIC START ======== 

.global 0
.subckt 2edl05n06pf lo ho gnd lin hin vdd vb vs 
r_hin hin gnd 1E12
c_hin hin gnd 1F
r_ho ho gnd 1E12
c_ho ho gnd 1F
r_vb vb gnd 1E12
c_vb vb gnd 1F
r_vs vs gnd 1E12
c_vs vs gnd 1F
r_lin lin gnd 1E12
c_lin lin gnd 1F
r_lo lo gnd 1E12
c_out lo gnd 1F
r_vcc vdd gnd 1E12
c_vcc vdd gnd 1F
e_sd sd gnd value = '5'
r_dt dt gnd 1
c_dt dt gnd 1P
x_gd_template lo ho gnd lin hin vdd vb vs sd dt two_edl05n06pf_gd_template  * endx-call 
.ends 2edl05n06pf
.subckt two_edl05n06pf_gd_template lo ho com lin hin vcc vb vs sd dt hb_en='1' sht_en='0' p_offset_dt='7.5E-08' p_slope_dt='-0.0' p_sd_d='2.5714285714285715E-08' p_th_sd_up='2.1' p_th_sd_dw='0.9' p_c_tpd='6.2374E-08' p_th_tpd='0.5145856856' p_c_pw_min='2.78E-08' p_th_hin_off='0.9' p_th_lin_off='0.9' p_th_hin_on='2.1' p_th_lin_on='2.1' p_r_hin_cl='94285.71428571429' p_r_lin_cl='94285.71428571429' p_c_gate='1.2E-11' p_rbond_nmos='0.01' p_rbond_pmos='0.01' p_lo_vgs_nmos='3' p_lo_vgs_pmos='3' p_lpmos_lamda='0.5' p_lpmos_kp='2E-05' p_lnmos_lamda='0.394' p_lnmos_kp='4.9E-05' p_ho_vgs_nmos='3' p_ho_vgs_pmos='3' p_hpmos_lamda='0.5' p_hpmos_kp='2E-05' p_hnmos_lamda='0.394' p_hnmos_kp='4.9E-05' p_vcc_uvh='9.1' p_vcc_uvl='8.3' p_vb_uvl='8.3' p_vb_uvh='9.1' p_r_uv_d_h='2571428' p_r_uv_d_l='2571428' p_vcc_min='10' p_iq_vcc='0.00028' p_vb_min='10' p_iq_vb='0.00017' p_v_leak='600' p_i_leak='1E-06' p_r_bsd='52' p_n_bsd='1.2294559113268089' p_is_bsd='1E-17' 
r_lin_clamp lin com 'P_R_LIN_CL'
r_hin_clamp hin com 'P_R_HIN_CL'
r_sd_clamp sd com 'P_R_LIN_CL'
x_hin_vcc_d hin vcc two_edl05n06pf_esd_dio p_v_bv='1' p_i_bv='1M'  * endx-call 
x_com_hin_d com hin two_edl05n06pf_esd_dio p_v_bv='1' p_i_bv='1M'  * endx-call 
x_lin_vcc_d lin vcc two_edl05n06pf_esd_dio p_v_bv='1' p_i_bv='1M'  * endx-call 
x_com_lin_d com lin two_edl05n06pf_esd_dio p_v_bv='1' p_i_bv='1M'  * endx-call 
x_sd_vcc_d sd vcc two_edl05n06pf_esd_dio p_v_bv='1' p_i_bv='1M'  * endx-call 
x_com_sd_d com sd two_edl05n06pf_esd_dio p_v_bv='1' p_i_bv='1M'  * endx-call 
x_cl_hin hin com two_edl05n06pf_cl_dio p_v_bv='5.25' p_i_bv='0.1M'  * endx-call 
x_cl_lin lin com two_edl05n06pf_cl_dio p_v_bv='5.25' p_i_bv='0.1M'  * endx-call 
x_cl_vcc vcc com two_edl05n06pf_cl_dio p_v_bv='20' p_i_bv='1'  * endx-call 
x_cl_vb vb vs two_edl05n06pf_cl_dio p_v_bv='20' p_i_bv='1'  * endx-call 
d_bs_diode vcc vb two_edl05n06pf_bs_dio
.model two_edl05n06pf_bs_dio d
+is='P_IS_BSD' rs='P_R_BSD' n='P_N_BSD' 
x_input_stage lin_dd hin_dd sd_dd lin hin sd com two_edl05n06pf_input_stage p_sd_d='P_SD_D' p_th_sd_up='P_TH_SD_UP' p_th_sd_dw='P_TH_SD_DW' p_c_tpd='P_C_TPD' p_th_tpd='P_TH_TPD' p_c_pw_min='P_C_PW_MIN' p_th_hin_off='P_TH_HIN_OFF' p_th_lin_off='P_TH_LIN_OFF' p_th_hin_on='P_TH_HIN_ON' p_th_lin_on='P_TH_LIN_ON'  * endx-call 
x_deadtime lin_dt_dig hin_dt_dig lin_dd hin_dd dt vcc com vcc_uv two_edl05n06pf_deadtime p_slope_dt='P_SLOPE_DT' p_offset_dt='P_OFFSET_DT' hb_en='HB_EN' sht_en='SHT_EN'  * endx-call 
x_ho_stage ho hin_dt_dig vcc_uv vb_uv sd_dd vb vs two_edl05n06pf_ho_stage p_rbond_pmos='P_RBOND_PMOS' p_rbond_nmos='P_RBOND_NMOS' p_c_gate='P_C_GATE' p_ho_vgs_pmos='P_HO_VGS_PMOS' p_hpmos_lamda='P_HPMOS_LAMDA' p_hpmos_kp='P_HPMOS_KP' p_ho_vgs_nmos='P_HO_VGS_NMOS' p_hnmos_lamda='P_HNMOS_LAMDA' p_hnmos_kp='P_HNMOS_KP'  * endx-call 
x_lo_stage lo lin_dt_dig vcc_uv sd_dd vcc com two_edl05n06pf_lo_stage p_rbond_pmos='P_RBOND_PMOS' p_rbond_nmos='P_RBOND_NMOS' p_c_gate='P_C_GATE' p_lo_vgs_pmos='P_LO_VGS_PMOS' p_lpmos_lamda='P_LPMOS_LAMDA' p_lpmos_kp='P_LPMOS_KP' p_lo_vgs_nmos='P_LO_VGS_NMOS' p_lnmos_lamda='P_LNMOS_LAMDA' p_lnmos_kp='P_LNMOS_KP'  * endx-call 
x_uv_detect vcc_uv vb_uv vcc vb com vs two_edl05n06pf_uv_detect p_vb_uvl='P_VB_UVL' p_vb_uvh='P_VB_UVH' p_r_uv_d_h='P_R_UV_D_H' p_vcc_uvl='P_VCC_UVL' p_vcc_uvh='P_VCC_UVH' p_r_uv_d_l='P_R_UV_D_L'  * endx-call 
x_cc_emulator vcc com vb vs two_edl05n06pf_cc_emulator p_vb_min='P_VB_MIN' p_vcc_min='P_VCC_MIN' p_iq_vb='P_IQ_VB' p_iq_vcc='P_IQ_VCC' p_i_leak='P_I_LEAK' p_v_leak='P_V_LEAK'  * endx-call 
.ends two_edl05n06pf_gd_template
.subckt two_edl05n06pf_input_stage lin_dd hin_dd sd_dd lin hin sd com p_sd_d='5E-08' p_th_sd_up='2.1' p_th_sd_dw='1.1' p_c_tpd='1.9E-07' p_th_tpd='10E-9' p_th_hin_off='0.9' p_th_lin_off='0.9' p_th_hin_on='2.1' p_th_lin_on='2.1' p_c_pw_min='42E-9' 
x_sd_th sd sd_dig com two_edl05n06pf_stp_ideal p_th_up='P_TH_SD_UP' p_th_dw='P_TH_SD_DW'  * endx-call 
x_sd_dd sd_dig sd_dd two_edl05n06pf_rc_delay_10 p_c_delay='P_SD_D'  * endx-call 
x_hin_th hin hin_dig com two_edl05n06pf_stp_ideal p_th_up='P_TH_HIN_ON' p_th_dw='P_TH_HIN_OFF'  * endx-call 
x_hin_lpf hin_dig hin_lpf_dig two_edl05n06pf_adv_filter p_c_delay='1.45E-08'  * endx-call 
x_hin_dd hin_lpf_dig hin_dd two_edl05n06pf_rc_delay_10 p_c_delay='5.8652E-08' p_th_tpd='0.5069963491'  * endx-call 
x_lin_th lin lin_dig com two_edl05n06pf_stp_ideal p_th_up='P_TH_LIN_ON' p_th_dw='P_TH_LIN_OFF'  * endx-call 
x_lin_lpf lin_dig lin_lpf_dig two_edl05n06pf_adv_filter p_c_delay='2.17E-08'  * endx-call 
x_lin_dd lin_lpf_dig lin_dd two_edl05n06pf_rc_delay_10 p_c_delay='4.4222E-08' p_th_tpd='0.5092815206'  * endx-call 
.ends two_edl05n06pf_input_stage
.subckt two_edl05n06pf_deadtime lin_dt_dig hin_dt_dig lin hin dt vcc com vcc_uv hb_en='1' sht_en='0.0' p_slope_dt='2.43236451E-05' p_offset_dt='5.4E-07' p_i_dt='1E-06' p_c_dt='10P' p_th_up='0.5' 
x_lin_dt lin lin_dd two_edl05n06pf_rc_delay_10 p_c_delay='0.3N'  * endx-call 
x_hin_dt hin hin_dd two_edl05n06pf_rc_delay_10 p_c_delay='0.1N'  * endx-call 
e_vcc_1v vcc_1v 0 value = 'TABLE( V(VCC,COM) , 0,0 , 3,0 , 6,1 )'
g_dt vcc dt value = 'TABLE( V(VCC,DT) , 0,0 , 10M,{P_I_DT} )'
e_hdt_pls hin_dt_pls 0 value = 'IF( ((V(HIN_DD) - V(LIN_DD)) > 0.1) | (V(HIN_DT_DIG) > 0.5) | ({HB_EN} < 0.5), 1.0 , 0.0 )'
e_hin_dt hin_dt_dig 0 value = 'IF( ( ((V(HIN_DT_PLS) > 0.5) & (V(LOFF) > {P_TH_UP})) | {HB_EN} < 0.5 ) & (V(HIN_DD) > 0.5 ) & V( VCC_UV) > 0.5 , 1.0 , 0.0 )'
e_ldt_pls lin_dt_pls 0 value = 'IF( ((V(LIN_DD) - V(HIN_DD)) > 0.1) | (V(LIN_DT_DIG) > 0.5) | ({HB_EN} < 0.5) , 1.0 , 0.0 )'
e_lin_dt lin_dt_dig 0 value = 'IF( ( ((V(LIN_DT_PLS) > 0.5) & (V(HOFF) > {P_TH_UP})) | {HB_EN} < 0.5 ) & (V(LIN_DD) > 0.5 ) , 1.0 , 0.0 )'
e_sht_h sht_h 0 value = 'IF( {SHT_EN} > 0.5 , V(HIN_DD) , V(HIN_DT_DIG) )'
e_sht_l sht_l 0 value = 'IF( {SHT_EN} > 0.5 , V(LIN_DD) , V(LIN_DT_DIG) )'
g_h_dt vcc_1v hoff value = 'TABLE( V(VCC_1V,HOFF) , 0,0 , 10M, I_DT( V(DT,COM) ) )'
c_h_dt hoff 0 'P_C_DT'
r_h_dt hoff 0 1E8
s_h_dt hoff 0 sht_h 0 two_edl05n06pf_dt_sw
g_l_dt vcc_1v loff value = 'TABLE( V(VCC_1V,LOFF) , 0,0 , 10M, I_DT( V(DT,COM) ) )'
c_l_dt loff 0 'P_C_DT'
r_l_dt loff 0 1E8
s_l_dt loff 0 sht_l 0 two_edl05n06pf_dt_sw
.func i_dt ( v_dt ) '{P_C_DT} * {P_TH_UP} / ({P_SLOPE_DT}/{P_I_DT}*V_DT + {P_OFFSET_DT})'
.model two_edl05n06pf_dt_sw vswitch
+ron='1' roff='100MEG' von='0.8' voff='0.2' 
.ends two_edl05n06pf_deadtime
.subckt two_edl05n06pf_ho_stage ho hin_dt_dig vcc_uv vb_uv sd_dd vb vs p_rbond_nmos='10M' p_rbond_pmos='10M' p_c_gate='1E-12' p_ho_vgs_pmos='6' p_hpmos_lamda='0.06' p_hpmos_kp='60U' p_ho_vgs_nmos='6' p_hnmos_lamda='0.05' p_hnmos_kp='100U' 
r_hin_dt_dd hin_dt_dig hin_dt_dd 100
c_hin_dt_dd hin_dt_dd 0 1N
e_hin_pls hin_pls 0 value = 'IF( (V(HIN_DT_DIG) - V(HIN_DT_DD)) > 0.1 | ((V(HGATE_DIG) > 0.5) & V(HIN_DT_DIG)>0.5), 1.0,0.0 )'
e_hgate_dig hgate_dig 0 value = 'IF( ( V(VB_UV) > 0.5 & V(HIN_PLS) > 0.5 & V(SD_DD) > 0.5 ) , 1.0,0.0 )'
r_hgate hgate_dig hgate 1
c_hgate hgate 0 'P_C_GATE'
e_hgate_p vb hgate_p value = 'V(HGATE) * {P_HO_VGS_PMOS} * V(HGATE_DIG)'
e_hgate_n hgate_n vs value = '(1 - V(HGATE)) * {P_HO_VGS_NMOS} * (1 - V(HGATE_DIG))'
m_ho_pmos ho hgate_p vb vb two_edl05n06pf_ho_pmos
m_ho_nmos ho hgate_n vs vs two_edl05n06pf_ho_nmos
.model two_edl05n06pf_ho_pmos pmos
+level='1' vto='-1' cgso='100P' w='1M' l='1U' rb='1' rg='10' rs='10M' rd='P_RBOND_PMOS' lambda='P_HPMOS_LAMDA' kp='P_HPMOS_KP' 
.model two_edl05n06pf_ho_nmos nmos
+level='1' vto='1' cgso='100P' w='1M' l='1U' rb='1' rg='10' rs='10M' rd='P_RBOND_NMOS' lambda='P_HNMOS_LAMDA' kp='P_HNMOS_KP' 
.ends two_edl05n06pf_ho_stage
.subckt two_edl05n06pf_lo_stage lo lin_dt_dig vcc_uv sd_dd vcc com p_rbond_nmos='10M' p_rbond_pmos='10M' p_c_gate='1E-12' p_lo_vgs_pmos='6' p_lpmos_lamda='0.06' p_lpmos_kp='60U' p_lo_vgs_nmos='6' p_lnmos_lamda='0.05' p_lnmos_kp='100U' 
e_lgate_dig lgate_dig 0 value = 'IF( (V(VCC_UV) > 0.5 & V(LIN_DT_DIG) > 0.5 & V(SD_DD) > 0.5 ), 1.0,0.0 )'
r_lgate lgate_dig lgate 1
c_lgate lgate 0 'P_C_GATE'
e_lgate_p vcc lgate_p value = 'V(LGATE) * {P_LO_VGS_PMOS} * V(LGATE_DIG)'
e_lgate_n lgate_n com value = '(1 - V(LGATE)) * {P_LO_VGS_NMOS} * (1 - V(LGATE_DIG))'
m_lo_pmos lo lgate_p vcc vcc two_edl05n06pf_lo_pmos
m_lo_nmos lo lgate_n com com two_edl05n06pf_lo_nmos
.model two_edl05n06pf_lo_pmos pmos
+level='1' vto='-1' cgso='100P' w='1M' l='1U' rb='1' rg='10' rs='10M' rd='P_RBOND_PMOS' lambda='P_LPMOS_LAMDA' kp='P_LPMOS_KP' 
.model two_edl05n06pf_lo_nmos nmos
+level='1' vto='1' cgso='100P' w='1M' l='1U' rb='1' rg='10' rs='10M' rd='P_RBOND_NMOS' lambda='P_LNMOS_LAMDA' kp='P_LNMOS_KP' 
.ends two_edl05n06pf_lo_stage
.subckt two_edl05n06pf_uv_detect vcc_uv vb_uv vcc vb com vs p_vb_uvl='7' p_vb_uvh='8' p_r_uv_d_h='142857' p_vcc_uvl='8' p_vcc_uvh='9' p_r_uv_d_l='71428' 
x_vb_uv vb vb_uv_dig vs two_edl05n06pf_stp_ideal p_th_up='P_VB_UVH' p_th_dw='P_VB_UVL'  * endx-call 
e_vb_uvl vb_uvl 0 value = 'IF( V(VB,VS) < {P_VB_UVL} , 0.0 , 1.0 )'
r_vb_uvl vb_uvl vb_uvl_lpf 'P_R_UV_D_H'
c_vb_uvl vb_uvl_lpf 0 1P
e_vb_uvl_pls vb_uvl_pls 0 value = 'IF( V(VB_UVL_LPF) < 0.5 | V(VB_UV) < 0.5 , 0.0 , 1.0 )'
e_vb_uv vb_uv 0 value = 'IF( V(VB_UV_DIG) < 0.5 & V(VB_UVL_PLS) < 0.5 , 0.0 , 1.0 )'
x_vcc_uv vcc vcc_uv_dig com two_edl05n06pf_stp_ideal p_th_up='P_VCC_UVH' p_th_dw='P_VCC_UVL'  * endx-call 
e_vcc_uvl vcc_uvl 0 value = 'IF( V(VCC,COM) < {P_VCC_UVL} , 0.0 , 1.0 )'
r_vcc_uvl vcc_uvl vcc_uvl_lpf 'P_R_UV_D_L'
c_vcc_uvl vcc_uvl_lpf 0 1P
e_vcc_uvl_pls vcc_uvl_pls 0 value = 'IF( V(VCC_UVL_LPF) < 0.5 | V(VCC_UV) < 0.5 , 0.0 , 1.0 )'
e_vcc_uv vcc_uv 0 value = 'IF( V(VCC_UV_DIG) < 0.5 & V(VCC_UVL_PLS) < 0.5 , 0.0 , 1.0 )'
.ends two_edl05n06pf_uv_detect
.subckt two_edl05n06pf_cc_emulator vcc com vb vs p_vb_min='10' p_vcc_min='10' p_iq_vb='100U' p_iq_vcc='500U' p_i_leak='1.0U' p_v_leak='650' 
g_qb vb vs value = 'TABLE(V(VB,VS) , 0,0 , 0.1,1U , 1,100U , 0.8*{P_VB_MIN},{P_IQ_VB})'
r_qb vb vs 1E12
g_qcc vcc com value = 'TABLE(V(VCC,COM) , 0,0 , 0.1,1U , 1,100U , 0.8*{P_VCC_MIN},{P_IQ_VCC})'
r_qcc vcc com 1E12
g_vb_leak vs com value = 'TABLE(V(VS,COM) , 0,0 , {P_V_LEAK},{P_I_LEAK})'
r_vb_leak vs com 1E12
.ends two_edl05n06pf_cc_emulator
.subckt two_edl05n06pf_cl_dio c a p_v_bv='5' p_i_bv='1' 
g_cl_dio c a value = 'TABLE(V(C,A) , 0,0 , {P_V_BV}*1.01,0 , {P_V_BV}*1.02,{P_I_BV} , 10*{P_V_BV}, 100*{P_I_BV} )'
c_cl_dio c a 1P
r_cl_dio c a 1E12
.ends two_edl05n06pf_cl_dio
.subckt two_edl05n06pf_esd_dio c a p_v_bv='5' p_i_bv='1' 
g_cl_dio c a value = 'TABLE(V(C,A) , 0,0 , {P_V_BV}*1.01,0 , {P_V_BV}*1.02,{P_I_BV} , 10*{P_V_BV}, 10*{P_I_BV} )'
c_cl_dio c a 1P
r_cl_dio c a 1E12
.ends two_edl05n06pf_esd_dio
.subckt two_edl05n06pf_rc_delay_10 in out p_c_delay='60E-9' p_th_tpd='0.5' 
x_d1 in out two_edl05n06pf_rc_delay_5 p_c_delay='P_C_DELAY' p_th_tpd='P_TH_TPD'  * endx-call 
.ends two_edl05n06pf_rc_delay_10
.subckt two_edl05n06pf_rc_delay_5 in out p_c_delay='60E-9' p_th_tpd='0.5' 
x_d1 in d1 two_edl05n06pf_rc_delay_base p_c_delay='P_C_DELAY' p_th_tpd='P_TH_TPD'  * endx-call 
x_d2 d1 d2 two_edl05n06pf_rc_delay_base p_c_delay='P_C_DELAY' p_th_tpd='P_TH_TPD'  * endx-call 
x_d3 d2 d3 two_edl05n06pf_rc_delay_base p_c_delay='P_C_DELAY' p_th_tpd='P_TH_TPD'  * endx-call 
x_d4 d3 d4 two_edl05n06pf_rc_delay_base p_c_delay='P_C_DELAY' p_th_tpd='P_TH_TPD'  * endx-call 
x_d5 d4 out two_edl05n06pf_rc_delay_base p_c_delay='P_C_DELAY' p_th_tpd='P_TH_TPD'  * endx-call 
.ends two_edl05n06pf_rc_delay_5
.subckt two_edl05n06pf_rc_delay_base in out p_c_delay='60E-9' p_th_tpd='0.5' 
r_delay in in_del 1
c_delay in_del 0 'P_C_DELAY'
e_delay out 0 value = 'IF( V(IN_DEL) > {P_TH_TPD} , 1.0,0.0 )'
.ends two_edl05n06pf_rc_delay_base
.subckt two_edl05n06pf_adv_filter in out p_c_delay='60E-9' p_th_tpd='0.5' 
r_rise in in_del 1
c_rise in_del 0 'P_C_DELAY'
x_cmp in_del out 0 two_edl05n06pf_stp_ideal p_th_up='0.999' p_th_dw='0.001'  * endx-call 
.ends two_edl05n06pf_adv_filter
.subckt two_edl05n06pf_stp_ideal in out gnd p_th_up='0.9' p_th_dw='0.1' 
e_outp outp 0 value = 'IF( V(IN,GND)>={P_TH_UP} | V(OUTN)<0.5 , 1,0 )'
e_outn outn 0 value = 'IF( V(IN,GND)<={P_TH_DW} | V(OUTP)<0.5 , 1,0 )'
e_out out 0 value = 'V(OUTP)'
.ends two_edl05n06pf_stp_ideal
.subckt two_edl05n06pf_stp_ideal1 in out gnd up dw p_th_up='0.9' p_th_dw='0.1' 
e_outp outp 0 value = 'IF( V(IN,GND)>=V(UP) | V(OUTN)<0.5 , 1,0 )'
e_outn outn 0 value = 'IF( V(IN,GND)<=V(DW) | V(OUTP)<0.5 , 1,0 )'
e_out out 0 value = 'V(OUTP)'
.ends two_edl05n06pf_stp_ideal1
.subckt two_edl05n06pf_stn_ideal in out gnd p_th_up='0.9' p_th_dw='0.1' 
e_outp outp 0 value = 'IF( V(IN,GND)>={P_TH_UP} | V(OUTN)<0.5 , 1,0 )'
e_outn outn 0 value = 'IF( V(IN,GND)<={P_TH_DW} | V(OUTP)<0.5 , 1,0 )'
e_out out 0 value = 'V(OUTN)'
.ends two_edl05n06pf_stn_ideal
.subckt two_edl05n06pf_stn_ideal1 in out gnd up dw p_th_up='0.9' p_th_dw='0.1' 
e_outp outp 0 value = 'IF( V(IN,GND)>=V(UP) | V(OUTN)<0.5 , 1,0 )'
e_outn outn 0 value = 'IF( V(IN,GND)<=V(DW) | V(OUTP)<0.5 , 1,0 )'
e_out out 0 value = 'V(OUTN)'
.ends two_edl05n06pf_stn_ideal1
.subckt a6_40_d_var dd g s0 sp tj a='1' dvth='0' drdson='0' dgfs='0' dc='0' dvbr='0' inn='1' unn='1' rmax='0' gmin='1' rsp='1' rs='1' rp='1' rmet='1u' 
.param dvthmax='0.3'
.param dcmax='0.3'
.param dvbrmax='3.15'
.param fm='0.05'
.param fn='1'
.param al='0.5'
.param c='0.95'
.param vth0='2.152'
.param auth='3.0m'
.param ut='15.11m'
.param ab='18.74m'
.param lb='-23'
.param ub='42.5'
.param b0='213.4'
.param nmu3='1.769'
.param p0='5.043'
.param p1='-14.06m'
.param p2='21.76u'
.param tref='298'
.param t0='273'
.param kbq='86.2u'
.param lnisj='-25.41'
.param ndi='1.099'
.param nisj='2.463'
.param rdi='1.152m'
.param nmu2='0.959'
.param td='20n'
.param ta='2n'
.param rd='3.436m'
.param rf='0.6'
.param nmu='3.044'
.param f3='606.2p'
.param f3a='31.78p'
.param q81='145.0p'
.param qs1='65.62p'
.param qs2='345.4p'
.param qs3='-87.45m'
.param qs4='85.58p'
.param qs5='-16.63m'
.param x0='308.2m'
.param x1='27.68'
.param dx='x1-x0'
.param f2r='226.4m'
.param ps0='2.966p'
.param ps1='16.86p'
.param ps2='-1.938'
.param ps3='85.69p'
.param ps4='-162.1m'
.param ps5='6.862p'
.param ps6='8.007p'
.param f5='34.57p'
.param x2='6.017'
.param x3='25.02'
.param dx2='x3-x2'
.param vth='Vth0+dVthmax*dVth'
.param q0='b0*((T0/Tref)**nmu3)*a'
.param q1='(Unn-Inn*Rs-Vth0)*q0'
.param q2='(Fm*sqrt(0.4)-c)*Inn*q0'
.param rlim='(q1+2*q2*Rmax-sqrt(max(q1**2+4*q2,0)))/(2*q2)'
.param drd='Rd/a+if(dVth==0,limit(dRdson,0,1)*max(Rlim-Rd/a-Rs-Rp,0),0)'
.param bm='c/((1/gmin-Rs)**2*Inn*a*(T0/Tref)**nmu3)'
.param bet='b0+(b0-bm)*if(dRdson==0,if(dVth==0,limit(dgfs,-1,0),0),0)'
.param dc1='1+dCmax*limit(dC,0,1)'
.param cgs0='f3*a*dC1'
.param cgs1='f3a*a*dC1'
.param drdi='Rdi/a'
.param cox1='(ps1*a+ps0*sqrt(a))*dC1'
.param cox2='ps3*a*dC1'
.param cox3='(ps5*a+ps6)*dC1'
.param cox4='(f5*a+(ps5*a+ps6))*dC1'
.param cds0='qs1*a*dC1'
.param cds1='qs2*(1+f2r/sqrt(a))*a*dC1'
.param cds2='qs4*a*dC1'
.param cds3='(q81+qs1)*a*dC1'
.func vbr ( usps ) 'UB+dVbrmax*dVbr'
.func i0 ( uee , p , pp , z1 ) 'if(Uee>pp,(Uee-c*z1)*z1,p*(pp-p)/c*exp((Uee-pp)/p))'
.func ig ( uds , t , p , uee ) 'bet*(T0/T)**nmu3*I0(Uee,p,min(2*p,p+c*Uds),min(Uds,Uee/(2*c)))'
.func j ( d , g , t , da , s , usps ) 'a*(s*(Ig(da,T,(p0+(p1+p2*T)*T)*kbq*T,g-Vth+auth*(T-Tref)+Fm*da**Fn+1*limit(-d,0,1))+ exp(min(lB+(d-VBR(Usps)-ab*(T-Tref))/UT,25))))'
.func idiode ( usd , tj , iss ) 'exp(min(log(Iss)+Usd/(ndi*kbq*Tj),7))-Iss'
.func idiod ( usd , tj ) 'a*Idiode(Usd,Tj,exp(min(lnIsj+(Tj/Tref-1)*1.12/(ndi*kbq*Tj),7))*(Tj/Tref)**nisj)'
.func pr ( vss0 , vssp ) 'Vss0*Vss0/max(Rmet,1u)+Vssp*Vssp/Rsp'
.func qcds ( x ) 'Cds3*min(x,x1)+Cds0*max(x-x1,0)+(Cds3-Cds0)*((limit(x,x0,x1)-x0)**3/(dx*dx)*((limit(x,x0,x1)-x0)/(2*dx)-1))'
.func qcdg ( x ) 'Cox4*min(x,x3)+Cox3*max(x-x3,0)+(Cox4-Cox3)*((limit(x,x2,x3)-x2)**3/(dx2*dx2)*((limit(x,x2,x3)-x2)/(2*dx2)-1))'
e_edg1 d ox value = 'if(V(d,g)>0,V(d,g)-(exp(ps2*max(V(d,g),0))-1)/ps2,0)'
c_cdg1 ox g 'Cox1'
e_edg2 d ox1 value = 'if(V(d,g)>0,V(d,g)-(exp(ps4*max(V(d,g),0))-1)/ps4,0)'
c_cdg2 ox1 g 'Cox2'
e_edg3 d ox2 value = 'V(d,g)-QCdg(V(d,g))/Cox4'
c_cdg3 ox2 g 'Cox4'
e_eds d edep value = 'V(d,s)-QCds(V(d,s))/Cds3'
c_cds edep s 'Cds3/2'
e_eds1 d edep1 value = 'V(d,sp)-QCds(V(d,sp))/Cds3'
c_cds1 edep1 sp 'Cds3/2'
e_eds2 d edep2 value = 'if(V(d,sp)>0,V(d,sp)-(exp(qs5*max(V(d,sp),0))-1)/qs5,0)'
c_cds2 edep2 sp 'Cds2'
e_eds3 d edep3 value = 'if(V(d,sp)>0,V(d,sp)-(exp(qs3*max(V(d,sp),0))-1)/qs3,0)'
c_cds3 edep3 sp 'Cds1'
c_cgs g s 'Cgs0'
c_cgs1 g sp 'Cgs1'
r_fp s sp 'Rsp'
g_chan d5a s value = 'J(V(d5a,s),V(g,s),T0+limit(V(Tj),-200,300),(sqrt(1+4*al*abs(V(d5a,s)))-1)/2/al,sgn(V(d5a,s)),V(sp,s))'
r_d06 d5a d5 1u
v_sm d d5 0
g_rmos d1 d value = 'V(d1,d)/(Rf*dRd+(1-Rf)*dRd*((limit(V(Tj),-200,999)+T0)/Tref)**nmu)'
v_sense dd d1 0
g_diode s d3 value = 'Idiod(V(s,d3),T0+limit(V(Tj),-200,499))'
g_rdio d2 d1 value = 'V(d2,d1)/(dRdi*((limit(V(Tj),-200,999)+T0)/Tref)**nmu2)'
v_sense2 d2 d3 0
r_1 g s 1G
r_d01 d s 1G
r_d02 d2 s 1G
r_d03 d1 d 1k
r_ssp g sp 100Meg
r_met s s0 'Rmet'
g_th 0 tj value = '(I(V_sense)-I(V_sense2))*V(d1,d)+I(V_sm)*V(d,s)+I(V_sense2)*V(d1,s)+Pr(V(s,s0),V(s,sp))'
.ends a6_40_d_var
.subckt a6_40_d1_var dd g s0 sp tj a='1' dvth='0' drdson='0' dgfs='0' dc='0' dvbr='0' inn='1' unn='1' rmax='0' gmin='1' rsp='1' rs='1' rp='1' rmet='1u' 
.param dvthmax='0.4'
.param dcmax='0.3'
.param dvbrmax='3.15'
.param fm='0.05'
.param fn='1'
.param al='0.5'
.param c='0.95'
.param vth0='3.51'
.param auth='3.0m'
.param ut='84.76m'
.param ab='20.15m'
.param lb='-23'
.param ub='41.4'
.param b0='143.8'
.param p0='6.094'
.param p1='-15.32m'
.param p2='26.44u'
.param rd='3.52m'
.param nmu='3.214'
.param tref='298'
.param t0='273'
.param lnisj='-27.1'
.param ndi='1.063'
.param nisj='3.00'
.param rdi='0.717m'
.param nmu2='1.616'
.param td='20n'
.param ta='2n'
.param rf='0.6'
.param nmu3='1.1'
.param kbq='86.2u'
.param f3='544.8p'
.param f3a='31.78p'
.param q81='31.98p'
.param qs1='58.61p'
.param qs2='548.4p'
.param qs3='-85.34m'
.param qs4='46.61p'
.param qs5='-8.081m'
.param x0='12.88'
.param x1='25.56'
.param dx='x1-x0'
.param f2r='178.9m'
.param ps0='27.7p'
.param ps1='55.67p'
.param ps2='-159.6m'
.param ps3='6.027p'
.param ps4='-1.123m'
.param ps5='8.05f'
.param ps6='7.499p'
.param f5='27.9p'
.param x2='7.131'
.param x3='25.52'
.param dx2='x3-x2'
.param vth='Vth0+dVthmax*dVth'
.param q0='b0*((T0/Tref)**nmu3)*a'
.param q1='(Unn-Inn*Rs-Vth0)*q0'
.param q2='(Fm*sqrt(0.4)-c)*Inn*q0'
.param rlim='(q1+2*q2*Rmax-sqrt(max(q1**2+4*q2,0)))/(2*q2)'
.param drd='Rd/a+if(dVth==0,limit(dRdson,0,1)*max(Rlim-Rd/a-Rs-Rp,0),0)'
.param bm='c/((1/gmin-Rs)**2*Inn*a*(T0/Tref)**nmu3)'
.param bet='b0+(b0-bm)*if(dRdson==0,if(dVth==0,limit(dgfs,-1,0),0),0)'
.param dc1='1+dCmax*limit(dC,0,1)'
.param cgs0='f3*a*dC1'
.param cgs1='f3a*a*dC1'
.param drdi='Rdi/a'
.param cox1='(ps1*a+ps0*sqrt(a))*dC1'
.param cox2='ps3*a*dC1'
.param cox3='(ps5*a+ps6)*dC1'
.param cox4='(f5*a+(ps5*a+ps6))*dC1'
.param cds0='qs1*a*dC1'
.param cds1='qs2*(1+f2r/sqrt(a))*a*dC1'
.param cds2='qs4*a*dC1'
.param cds3='(q81+qs1)*a*dC1'
.func vbr ( usps ) 'UB+dVbrmax*dVbr'
.func i0 ( uee , p , pp , z1 ) 'if(Uee>pp,(Uee-c*z1)*z1,p*(pp-p)/c*exp((Uee-pp)/p))'
.func ig ( uds , t , p , uee ) 'bet*(T0/T)**nmu3*I0(Uee,p,min(2*p,p+c*Uds),min(Uds,Uee/(2*c)))'
.func j ( d , g , t , da , s , usps ) 'a*(s*(Ig(da,T,(p0+(p1+p2*T)*T)*kbq*T,g-Vth+auth*(T-Tref)+Fm*da**Fn+1*limit(-d,0,1))+ exp(min(lB+(d-VBR(Usps)-ab*(T-Tref))/UT,25))))'
.func idiode ( usd , tj , iss ) 'exp(min(log(Iss)+Usd/(ndi*kbq*Tj),7))-Iss'
.func idiod ( usd , tj ) 'a*Idiode(Usd,Tj,exp(min(lnIsj+(Tj/Tref-1)*1.12/(ndi*kbq*Tj),7))*(Tj/Tref)**nisj)'
.func pr ( vss0 , vssp ) 'Vss0*Vss0/max(Rmet,1u)+Vssp*Vssp/Rsp'
.func qcds ( x ) 'Cds3*min(x,x1)+Cds0*max(x-x1,0)+(Cds3-Cds0)*((limit(x,x0,x1)-x0)**3/(dx*dx)*((limit(x,x0,x1)-x0)/(2*dx)-1))'
.func qcdg ( x ) 'Cox4*min(x,x3)+Cox3*max(x-x3,0)+(Cox4-Cox3)*((limit(x,x2,x3)-x2)**3/(dx2*dx2)*((limit(x,x2,x3)-x2)/(2*dx2)-1))'
e_edg1 d ox value = 'if(V(d,g)>0,V(d,g)-(exp(ps2*max(V(d,g),0))-1)/ps2,0)'
c_cdg1 ox g 'Cox1'
e_edg2 d ox1 value = 'if(V(d,g)>0,V(d,g)-(exp(ps4*max(V(d,g),0))-1)/ps4,0)'
c_cdg2 ox1 g 'Cox2'
e_edg3 d ox2 value = 'V(d,g)-QCdg(V(d,g))/Cox4'
c_cdg3 ox2 g 'Cox4'
e_eds d edep value = 'V(d,s)-QCds(V(d,s))/Cds3'
c_cds edep s 'Cds3/2'
e_eds1 d edep1 value = 'V(d,sp)-QCds(V(d,sp))/Cds3'
c_cds1 edep1 sp 'Cds3/2'
e_eds2 d edep2 value = 'if(V(d,sp)>0,V(d,sp)-(exp(qs5*max(V(d,sp),0))-1)/qs5,0)'
c_cds2 edep2 sp 'Cds2'
e_eds3 d edep3 value = 'if(V(d,sp)>0,V(d,sp)-(exp(qs3*max(V(d,sp),0))-1)/qs3,0)'
c_cds3 edep3 sp 'Cds1'
c_cgs g s 'Cgs0'
c_cgs1 g sp 'Cgs1'
r_fp s sp 'Rsp'
g_chan d5a s value = 'J(V(d5a,s),V(g,s),T0+limit(V(Tj),-200,300),(sqrt(1+4*al*abs(V(d5a,s)))-1)/2/al,sgn(V(d5a,s)),V(sp,s))'
r_d06 d5a d5 1u
v_sm d d5 0
g_rmos d1 d value = 'V(d1,d)/(Rf*dRd+(1-Rf)*dRd*((limit(V(Tj),-200,999)+T0)/Tref)**nmu)'
v_sense dd d1 0
g_diode s d3 value = 'Idiod(V(s,d3),T0+limit(V(Tj),-200,499))'
g_rdio d2 d1 value = 'V(d2,d1)/(dRdi*((limit(V(Tj),-200,999)+T0)/Tref)**nmu2)'
v_sense2 d2 d3 0
r_1 g s 1G
r_d01 d s 1G
r_d02 d2 s 1G
r_d03 d1 d 1k
r_ssp g sp 100Meg
r_met s s0 'Rmet'
g_th 0 tj value = '(I(V_sense)-I(V_sense2))*V(d1,d)+I(V_sm)*V(d,s)+I(V_sense2)*V(d1,s)+Pr(V(s,s0),V(s,sp))'
.ends a6_40_d1_var
.subckt a6_40_e_var dd g s0 sp tj a='1' dvth='0' drdson='0' dgfs='0' dc='0' dvbr='0' inn='1' unn='1' rmax='0' gmin='1' rsp='1' rs='1' rp='1' rmet='1u' 
.param dvthmax='0.3'
.param dcmax='0.3'
.param dvbrmax='3.15'
.param fm='0.05'
.param fn='1'
.param al='0.5'
.param c='0.95'
.param vth0='2.152'
.param auth='3.0m'
.param ut='15.11m'
.param ab='18.74m'
.param lb='-23'
.param ub='42.5'
.param b0='213.4'
.param p0='5.043'
.param p1='-14.06m'
.param p2='21.76u'
.param rd='3.579m'
.param nmu='3.044'
.param tref='298'
.param t0='273'
.param lnisj='-25.41'
.param ndi='1.099'
.param nisj='2.463'
.param rdi='1.152m'
.param nmu2='0.959'
.param td='20n'
.param ta='2n'
.param rf='0.6'
.param nmu3='1.769'
.param kbq='86.2u'
.param f3='606.2p'
.param f3a='31.78p'
.param q81='145.0p'
.param qs1='65.62p'
.param qs2='345.4p'
.param qs3='-87.45m'
.param qs4='85.58p'
.param qs5='-16.63m'
.param x0='308.2m'
.param x1='27.68'
.param dx='x1-x0'
.param f2r='226.4m'
.param ps0='2.966p'
.param ps1='16.86p'
.param ps2='-1.938'
.param ps3='85.69p'
.param ps4='-162.1m'
.param ps5='6.862p'
.param ps6='8.007p'
.param f5='34.57p'
.param x2='6.017'
.param x3='25.02'
.param dx2='x3-x2'
.param vth='Vth0+dVthmax*dVth'
.param q0='b0*((T0/Tref)**nmu3)*a'
.param q1='(Unn-Inn*Rs-Vth0)*q0'
.param q2='(Fm*sqrt(0.4)-c)*Inn*q0'
.param rlim='(q1+2*q2*Rmax-sqrt(max(q1**2+4*q2,0)))/(2*q2)'
.param drd='Rd/a+if(dVth==0,limit(dRdson,0,1)*max(Rlim-Rd/a-Rs-Rp,0),0)'
.param bm='c/((1/gmin-Rs)**2*Inn*a*(T0/Tref)**nmu3)'
.param bet='b0+(b0-bm)*if(dRdson==0,if(dVth==0,limit(dgfs,-1,0),0),0)'
.param dc1='1+dCmax*limit(dC,0,1)'
.param cgs0='f3*a*dC1'
.param cgs1='f3a*a*dC1'
.param drdi='Rdi/a'
.param cox1='(ps1*a+ps0*sqrt(a))*dC1'
.param cox2='ps3*a*dC1'
.param cox3='(ps5*a+ps6)*dC1'
.param cox4='(f5*a+(ps5*a+ps6))*dC1'
.param cds0='qs1*a*dC1'
.param cds1='qs2*(1+f2r/sqrt(a))*a*dC1'
.param cds2='qs4*a*dC1'
.param cds3='(q81+qs1)*a*dC1'
.func vbr ( usps ) 'UB+dVbrmax*dVbr'
.func i0 ( uee , p , pp , z1 ) 'if(Uee>pp,(Uee-c*z1)*z1,p*(pp-p)/c*exp((Uee-pp)/p))'
.func ig ( uds , t , p , uee ) 'bet*(T0/T)**nmu3*I0(Uee,p,min(2*p,p+c*Uds),min(Uds,Uee/(2*c)))'
.func j ( d , g , t , da , s , usps ) 'a*(s*(Ig(da,T,(p0+(p1+p2*T)*T)*kbq*T,g-Vth+auth*(T-Tref)+Fm*da**Fn+1*limit(-d,0,1))+ exp(min(lB+(d-VBR(Usps)-ab*(T-Tref))/UT,25))))'
.func idiode ( usd , tj , iss ) 'exp(min(log(Iss)+Usd/(ndi*kbq*Tj),7))-Iss'
.func idiod ( usd , tj ) 'a*Idiode(Usd,Tj,exp(min(lnIsj+(Tj/Tref-1)*1.12/(ndi*kbq*Tj),7))*(Tj/Tref)**nisj)'
.func pr ( vss0 , vssp ) 'Vss0*Vss0/max(Rmet,1u)+Vssp*Vssp/Rsp'
.func qcds ( x ) 'Cds3*min(x,x1)+Cds0*max(x-x1,0)+(Cds3-Cds0)*((limit(x,x0,x1)-x0)**3/(dx*dx)*((limit(x,x0,x1)-x0)/(2*dx)-1))'
.func qcdg ( x ) 'Cox4*min(x,x3)+Cox3*max(x-x3,0)+(Cox4-Cox3)*((limit(x,x2,x3)-x2)**3/(dx2*dx2)*((limit(x,x2,x3)-x2)/(2*dx2)-1))'
e_edg1 d ox value = 'if(V(d,g)>0,V(d,g)-(exp(ps2*max(V(d,g),0))-1)/ps2,0)'
c_cdg1 ox g 'Cox1'
e_edg2 d ox1 value = 'if(V(d,g)>0,V(d,g)-(exp(ps4*max(V(d,g),0))-1)/ps4,0)'
c_cdg2 ox1 g 'Cox2'
e_edg3 d ox2 value = 'V(d,g)-QCdg(V(d,g))/Cox4'
c_cdg3 ox2 g 'Cox4'
e_eds d edep value = 'V(d,s)-QCds(V(d,s))/Cds3'
c_cds edep s 'Cds3/2'
e_eds1 d edep1 value = 'V(d,sp)-QCds(V(d,sp))/Cds3'
c_cds1 edep1 sp 'Cds3/2'
e_eds2 d edep2 value = 'if(V(d,sp)>0,V(d,sp)-(exp(qs5*max(V(d,sp),0))-1)/qs5,0)'
c_cds2 edep2 sp 'Cds2'
e_eds3 d edep3 value = 'if(V(d,sp)>0,V(d,sp)-(exp(qs3*max(V(d,sp),0))-1)/qs3,0)'
c_cds3 edep3 sp 'Cds1'
c_cgs g s 'Cgs0'
c_cgs1 g sp 'Cgs1'
r_fp s sp 'Rsp'
g_chan d5a s value = 'J(V(d5a,s),V(g,s),T0+limit(V(Tj),-200,300),(sqrt(1+4*al*abs(V(d5a,s)))-1)/2/al,sgn(V(d5a,s)),V(sp,s))'
r_d06 d5a d5 1u
v_sm d d5 0
g_rmos d1 d value = 'V(d1,d)/(Rf*dRd+(1-Rf)*dRd*((limit(V(Tj),-200,999)+T0)/Tref)**nmu)'
v_sense dd d1 0
g_diode s d3 value = 'Idiod(V(s,d3),T0+limit(V(Tj),-200,499))'
g_rdio d2 d1 value = 'V(d2,d1)/(dRdi*((limit(V(Tj),-200,999)+T0)/Tref)**nmu2)'
v_sense2 d2 d3 0
r_1 g s 1G
r_d01 d s 1G
r_d02 d2 s 1G
r_d03 d1 d 1k
r_ssp g sp 100Meg
r_met s s0 'Rmet'
g_th 0 tj value = '(I(V_sense)-I(V_sense2))*V(d1,d)+I(V_sm)*V(d,s)+I(V_sense2)*V(d1,s)+Pr(V(s,s0),V(s,sp))'
.ends a6_40_e_var
.subckt a6_40_e1_var dd g s0 sp tj a='1' dvth='0' drdson='0' dgfs='0' dc='0' dvbr='0' inn='1' unn='1' rmax='0' gmin='1' rsp='1' rs='1' rp='1' rmet='1u' 
.param dvthmax='0.4'
.param dcmax='0.3'
.param dvbrmax='3.15'
.param fm='0.05'
.param fn='1'
.param al='0.5'
.param c='0.95'
.param vth0='3.51'
.param auth='3.0m'
.param ut='84.76m'
.param ab='20.15m'
.param lb='-23'
.param ub='41.4'
.param b0='143.8'
.param p0='6.094'
.param p1='-15.32m'
.param p2='26.44u'
.param rd='4.02m'
.param nmu='3.214'
.param tref='298'
.param t0='273'
.param lnisj='-27.1'
.param ndi='1.063'
.param nisj='3.00'
.param rdi='0.717m'
.param nmu2='1.616'
.param td='20n'
.param ta='2n'
.param rf='0.6'
.param nmu3='1.1'
.param kbq='86.2u'
.param f3='544.8p'
.param f3a='31.78p'
.param q81='31.98p'
.param qs1='58.61p'
.param qs2='548.4p'
.param qs3='-85.34m'
.param qs4='46.61p'
.param qs5='-8.081m'
.param x0='12.88'
.param x1='25.56'
.param dx='x1-x0'
.param f2r='178.9m'
.param ps0='27.7p'
.param ps1='55.67p'
.param ps2='-159.6m'
.param ps3='6.027p'
.param ps4='-1.123m'
.param ps5='8.05f'
.param ps6='7.499p'
.param f5='27.9p'
.param x2='7.131'
.param x3='25.52'
.param dx2='x3-x2'
.param vth='Vth0+dVthmax*dVth'
.param q0='b0*((T0/Tref)**nmu3)*a'
.param q1='(Unn-Inn*Rs-Vth0)*q0'
.param q2='(Fm*sqrt(0.4)-c)*Inn*q0'
.param rlim='(q1+2*q2*Rmax-sqrt(max(q1**2+4*q2,0)))/(2*q2)'
.param drd='Rd/a+if(dVth==0,limit(dRdson,0,1)*max(Rlim-Rd/a-Rs-Rp,0),0)'
.param bm='c/((1/gmin-Rs)**2*Inn*a*(T0/Tref)**nmu3)'
.param bet='b0+(b0-bm)*if(dRdson==0,if(dVth==0,limit(dgfs,-1,0),0),0)'
.param dc1='1+dCmax*limit(dC,0,1)'
.param cgs0='f3*a*dC1'
.param cgs1='f3a*a*dC1'
.param drdi='Rdi/a'
.param cox1='(ps1*a+ps0*sqrt(a))*dC1'
.param cox2='ps3*a*dC1'
.param cox3='(ps5*a+ps6)*dC1'
.param cox4='(f5*a+(ps5*a+ps6))*dC1'
.param cds0='qs1*a*dC1'
.param cds1='qs2*(1+f2r/sqrt(a))*a*dC1'
.param cds2='qs4*a*dC1'
.param cds3='(q81+qs1)*a*dC1'
.func vbr ( usps ) 'UB+dVbrmax*dVbr'
.func i0 ( uee , p , pp , z1 ) 'if(Uee>pp,(Uee-c*z1)*z1,p*(pp-p)/c*exp((Uee-pp)/p))'
.func ig ( uds , t , p , uee ) 'bet*(T0/T)**nmu3*I0(Uee,p,min(2*p,p+c*Uds),min(Uds,Uee/(2*c)))'
.func j ( d , g , t , da , s , usps ) 'a*(s*(Ig(da,T,(p0+(p1+p2*T)*T)*kbq*T,g-Vth+auth*(T-Tref)+Fm*da**Fn+1*limit(-d,0,1))+ exp(min(lB+(d-VBR(Usps)-ab*(T-Tref))/UT,25))))'
.func idiode ( usd , tj , iss ) 'exp(min(log(Iss)+Usd/(ndi*kbq*Tj),7))-Iss'
.func idiod ( usd , tj ) 'a*Idiode(Usd,Tj,exp(min(lnIsj+(Tj/Tref-1)*1.12/(ndi*kbq*Tj),7))*(Tj/Tref)**nisj)'
.func pr ( vss0 , vssp ) 'Vss0*Vss0/max(Rmet,1u)+Vssp*Vssp/Rsp'
.func qcds ( x ) 'Cds3*min(x,x1)+Cds0*max(x-x1,0)+(Cds3-Cds0)*((limit(x,x0,x1)-x0)**3/(dx*dx)*((limit(x,x0,x1)-x0)/(2*dx)-1))'
.func qcdg ( x ) 'Cox4*min(x,x3)+Cox3*max(x-x3,0)+(Cox4-Cox3)*((limit(x,x2,x3)-x2)**3/(dx2*dx2)*((limit(x,x2,x3)-x2)/(2*dx2)-1))'
e_edg1 d ox value = 'if(V(d,g)>0,V(d,g)-(exp(ps2*max(V(d,g),0))-1)/ps2,0)'
c_cdg1 ox g 'Cox1'
e_edg2 d ox1 value = 'if(V(d,g)>0,V(d,g)-(exp(ps4*max(V(d,g),0))-1)/ps4,0)'
c_cdg2 ox1 g 'Cox2'
e_edg3 d ox2 value = 'V(d,g)-QCdg(V(d,g))/Cox4'
c_cdg3 ox2 g 'Cox4'